/*---------------------------------------------------------------------------*\
| =========                 |                                                 |
| \\      /  F ield         | OpenFOAM: The Open Source CFD Toolbox           |
|  \\    /   O peration     | Version:  2.3.x                                 |
|   \\  /    A nd           | Web:      www.OpenFOAM.org                      |
|    \\/     M anipulation  |                                                 |
\*---------------------------------------------------------------------------*/
Build  : 2.3.x-9606d1dace48
Exec   : topoSet
Date   : Nov 28 2014
Time   : 19:47:33
Host   : "jujjamachine"
PID    : 7301
Case   : /home/jujja/OpenFOAM/root-2.3.x/run/tutorials/incompressible/pimpleFoam/2meshes_cylinder/AMI_bugfixing/Test/cylinder_AMI
nProcs : 1
sigFpe : Enabling floating point exception trapping (FOAM_SIGFPE).
fileModificationChecking : Monitoring run-time modified files using timeStampMaster
allowSystemOperations : Allowing user-supplied system call operations

// * * * * * * * * * * * * * * * * * * * * * * * * * * * * * * * * * * * * * //
Create time

Create polyMesh for time = 0

Reading topoSetDict

Time = 0
    mesh not changed.
Created faceSet AMI
    Applying source patchToFace
    Adding all faces of patch "couple.*" ...
    Found matching patch couple2 with 60 faces.
    Found matching patch couple1 with 60 faces.
    faceSet AMI now size 120
Created cellSet rotor
    Applying source cylinderToCell
    Adding cells with centre within cylinder, with p1 = (0 0 0.1), p2 = (0 0 -0.1) and radius = 2.5
    cellSet rotor now size 104432
Created cellZoneSet rotor
    Applying source setToCellZone
    Adding all cells from cellSet rotor ...
    cellZoneSet rotor now size 104432

End

