/*---------------------------------------------------------------------------*\
| =========                 |                                                 |
| \\      /  F ield         | OpenFOAM: The Open Source CFD Toolbox           |
|  \\    /   O peration     | Version:  2.3.x                                 |
|   \\  /    A nd           | Web:      www.OpenFOAM.org                      |
|    \\/     M anipulation  |                                                 |
\*---------------------------------------------------------------------------*/
Build  : 2.3.x-9606d1dace48
Exec   : mapFields ../simple -sourceTime latestTime -consistent
Date   : Nov 28 2014
Time   : 19:47:33
Host   : "jujjamachine"
PID    : 7303
Case   : /home/jujja/OpenFOAM/root-2.3.x/run/tutorials/incompressible/pimpleFoam/2meshes_cylinder/AMI_bugfixing/Test/cylinder_AMI
nProcs : 1
sigFpe : Enabling floating point exception trapping (FOAM_SIGFPE).
fileModificationChecking : Monitoring run-time modified files using timeStampMaster
allowSystemOperations : Allowing user-supplied system call operations

// * * * * * * * * * * * * * * * * * * * * * * * * * * * * * * * * * * * * * //
Source: ".." "simple"
Target: "/home/jujja/OpenFOAM/root-2.3.x/run/tutorials/incompressible/pimpleFoam/2meshes_cylinder/AMI_bugfixing/Test" "cylinder_AMI"

Create databases as time
Case   : ../simple
nProcs : 1

Source time: 3000
Target time: 0

Create meshes

Source mesh size: 106232	Target mesh size: 106232


Consistently creating and mapping fields for time 3000

Creating mesh-to-mesh addressing for region0 and region0 regions using cellVolumeWeight
    Overlap volume: 79.9835
Creating AMI between source patch inlet and target patch inlet using faceAreaWeightAMI
    AMI: Creating addressing and weights between 10 source faces and 10 target faces
    AMI: Patch source sum(weights) min/max/average = 1, 1, 1
    AMI: Patch target sum(weights) min/max/average = 1, 1, 1
Creating AMI between source patch outlet and target patch outlet using faceAreaWeightAMI
    AMI: Creating addressing and weights between 10 source faces and 10 target faces
    AMI: Patch source sum(weights) min/max/average = 1, 1, 1
    AMI: Patch target sum(weights) min/max/average = 1, 1, 1
Creating AMI between source patch topandbottom and target patch topandbottom using faceAreaWeightAMI
    AMI: Creating addressing and weights between 40 source faces and 40 target faces
    AMI: Patch source sum(weights) min/max/average = 1, 1, 1
    AMI: Patch target sum(weights) min/max/average = 1, 1, 1
Creating AMI between source patch wing and target patch wing using faceAreaWeightAMI
    AMI: Creating addressing and weights between 24768 source faces and 24768 target faces
    AMI: Patch source sum(weights) min/max/average = 1, 1, 1
    AMI: Patch target sum(weights) min/max/average = 1, 1, 1
    interpolating p
    interpolating U

End

