/*---------------------------------------------------------------------------*\
| =========                 |                                                 |
| \\      /  F ield         | OpenFOAM: The Open Source CFD Toolbox           |
|  \\    /   O peration     | Version:  2.3.x                                 |
|   \\  /    A nd           | Web:      www.OpenFOAM.org                      |
|    \\/     M anipulation  |                                                 |
\*---------------------------------------------------------------------------*/
Build  : 2.3.x-9606d1dace48
Exec   : blockMesh
Date   : Nov 26 2014
Time   : 13:48:24
Host   : "jujjamachine"
PID    : 29038
Case   : /home/jujja/OpenFOAM/root-2.3.x/run/tutorials/incompressible/pimpleFoam/2meshes_cylinder/AMI_bugfixing/rotor
nProcs : 1
sigFpe : Enabling floating point exception trapping (FOAM_SIGFPE).
fileModificationChecking : Monitoring run-time modified files using timeStampMaster
allowSystemOperations : Allowing user-supplied system call operations

// * * * * * * * * * * * * * * * * * * * * * * * * * * * * * * * * * * * * * //
Create time

Creating block mesh from
    "/home/jujja/OpenFOAM/root-2.3.x/run/tutorials/incompressible/pimpleFoam/2meshes_cylinder/AMI_bugfixing/rotor/constant/polyMesh/blockMeshDict"
Creating curved edges
Creating topology blocks
Creating topology patches

Creating block mesh topology

Check topology

	Basic statistics
		Number of internal faces : 9
		Number of boundary faces : 18
		Number of defined boundary faces : 18
		Number of undefined boundary faces : 0
	Checking patch -> block consistency

Creating block offsets
Creating merge list ..

Creating polyMesh from blockMesh
Creating patches
Creating cells
Creating points with scale 1
    Block 0 cell size :
        i : 0 .. 0
        j : 0.2 .. 0.2
        k : 0.0200332 .. 0.100166

    Block 1 cell size :
        i : 0 .. 0
        j : 0.2 .. 0.2
        k : 0.0200332 .. 0.100166

    Block 2 cell size :
        i : 0 .. 0
        j : 0.2 .. 0.2
        k : 0.0200332 .. 0.100166

    Block 3 cell size :
        i : 0 .. 0
        j : 0.2 .. 0.2
        k : 0.0200332 .. 0.100166

    Block 4 cell size :
        i : 0 .. 0
        j : 0.2 .. 0.2
        k : 0.0200332 .. 0.100166

    Block 5 cell size :
        i : 0 .. 0
        j : 0.2 .. 0.2
        k : 0.0200332 .. 0.100166


There are no merge patch pairs edges

Writing polyMesh
----------------
Mesh Information
----------------
  boundingBox: (-2.5 -2.5 -0.1) (2.5 2.5 0.1)
  nPoints: 6002
  nCells: 3000
  nFaces: 12000
  nInternalFaces: 5940
----------------
Patches
----------------
  patch 0 (start: 5940 size: 60) name: couple1
  patch 1 (start: 6000 size: 6000) name: frontandback

End

